# DDEC6 charges by PACMAN v1.1 (https://github.com/mtap-research/PACMAN-charge/)
data_2006[Zn][dft]3[FSR]1
_chemical_formula_sum              "Zn16 H96 C96 N64"
_cell_length_a       18.9701
_cell_length_b       18.9701
_cell_length_c       16.74
_cell_angle_alpha    90
_cell_angle_beta     90
_cell_angle_gamma    90

_symmetry_space_group_name_H-M    "P 1"
_symmetry_Int_Tables_number       1

loop_
  _symmetry_equiv_pos_as_xyz
  'x, y, z'

loop_
  _atom_site_type_symbol
  _atom_site_label
  _atom_site_symmetry_multiplicity
  _atom_site_fract_x
  _atom_site_fract_y
  _atom_site_fract_z
  _atom_site_occupancy
  _atom_site_charge
Zn  Zn1       1.0  0.17336  0.60549  0.17924  1.0000 0.5918203635
Zn  Zn2       1.0  0.10549  0.32664  0.67924  1.0000 0.5918203635
Zn  Zn3       1.0  0.89451  0.67336  0.67924  1.0000 0.5918203635
Zn  Zn4       1.0  0.60549  0.17336  0.82076  1.0000 0.5918203635
Zn  Zn5       1.0  0.82664  0.39451  0.17924  1.0000 0.5918203635
Zn  Zn6       1.0  0.67336  0.89451  0.32076  1.0000 0.5918203635
Zn  Zn7       1.0  0.32664  0.10549  0.32076  1.0000 0.5918203635
Zn  Zn8       1.0  0.39451  0.82664  0.82076  1.0000 0.5918203635
Zn  Zn9       1.0  0.82664  0.39451  0.82076  1.0000 0.5918203635
Zn  Zn10      1.0  0.89451  0.67336  0.32076  1.0000 0.5918203635
Zn  Zn11      1.0  0.10549  0.32664  0.32076  1.0000 0.5918203635
Zn  Zn12      1.0  0.39451  0.82664  0.17924  1.0000 0.5918203635
Zn  Zn13      1.0  0.17336  0.60549  0.82076  1.0000 0.5918203635
Zn  Zn14      1.0  0.32664  0.10549  0.67924  1.0000 0.5918203635
Zn  Zn15      1.0  0.67336  0.89451  0.67924  1.0000 0.5918203635
Zn  Zn16      1.0  0.60549  0.17336  0.17924  1.0000 0.5918203635
H   H1        1.0  0.26680  0.73320  0.13050  1.0000 0.0875365114
H   H2        1.0  0.23320  0.23320  0.63050  1.0000 0.0875365114
H   H3        1.0  0.76680  0.76680  0.63050  1.0000 0.0875365114
H   H4        1.0  0.73320  0.26680  0.86950  1.0000 0.0875365114
H   H5        1.0  0.73320  0.26680  0.13050  1.0000 0.0875365114
H   H6        1.0  0.76680  0.76680  0.36950  1.0000 0.0875365114
H   H7        1.0  0.23320  0.23320  0.36950  1.0000 0.0875365114
H   H8        1.0  0.26680  0.73320  0.86950  1.0000 0.0875365114
H   H9        1.0  0.30580  0.60270  0.30180  1.0000 0.1102204111
H   H10       1.0  0.10270  0.19420  0.80180  1.0000 0.1102204111
H   H11       1.0  0.89730  0.80580  0.80180  1.0000 0.1102204111
H   H12       1.0  0.60270  0.30580  0.69820  1.0000 0.1102204111
H   H13       1.0  0.69420  0.39730  0.30180  1.0000 0.1102204111
H   H14       1.0  0.80580  0.89730  0.19820  1.0000 0.1102204111
H   H15       1.0  0.19420  0.10270  0.19820  1.0000 0.1102204111
H   H16       1.0  0.39730  0.69420  0.69820  1.0000 0.1102204111
H   H17       1.0  0.69420  0.39730  0.69820  1.0000 0.1102204111
H   H18       1.0  0.89730  0.80580  0.19820  1.0000 0.1102204111
H   H19       1.0  0.10270  0.19420  0.19820  1.0000 0.1102204111
H   H20       1.0  0.39730  0.69420  0.30180  1.0000 0.1102204111
H   H21       1.0  0.30580  0.60270  0.69820  1.0000 0.1102204111
H   H22       1.0  0.19420  0.10270  0.80180  1.0000 0.1102204111
H   H23       1.0  0.80580  0.89730  0.80180  1.0000 0.1102204111
H   H24       1.0  0.60270  0.30580  0.30180  1.0000 0.1102204111
H   H25       1.0  0.01060  0.60470  0.21840  1.0000 0.0875365114
H   H26       1.0  0.10470  0.48940  0.71840  1.0000 0.0845965115
H   H27       1.0  0.89530  0.51060  0.71840  1.0000 0.0845965115
H   H28       1.0  0.60470  0.01060  0.78160  1.0000 0.0875365114
H   H29       1.0  0.98940  0.39530  0.21840  1.0000 0.0875365114
H   H30       1.0  0.51060  0.89530  0.28160  1.0000 0.0845965115
H   H31       1.0  0.48940  0.10470  0.28160  1.0000 0.0845965115
H   H32       1.0  0.39530  0.98940  0.78160  1.0000 0.0875365114
H   H33       1.0  0.98940  0.39530  0.78160  1.0000 0.0875365114
H   H34       1.0  0.89530  0.51060  0.28160  1.0000 0.0845965115
H   H35       1.0  0.10470  0.48940  0.28160  1.0000 0.0845965115
H   H36       1.0  0.39530  0.98940  0.21840  1.0000 0.0875365114
H   H37       1.0  0.01060  0.60470  0.78160  1.0000 0.0875365114
H   H38       1.0  0.48940  0.10470  0.71840  1.0000 0.0845965115
H   H39       1.0  0.51060  0.89530  0.71840  1.0000 0.0845965115
H   H40       1.0  0.60470  0.01060  0.21840  1.0000 0.0875365114
H   H41       1.0  0.15250  0.71800  0.32210  1.0000 0.1102204111
H   H42       1.0  0.21800  0.34750  0.82210  1.0000 0.1102204111
H   H43       1.0  0.78200  0.65250  0.82210  1.0000 0.1102204111
H   H44       1.0  0.71800  0.15250  0.67790  1.0000 0.1102204111
H   H45       1.0  0.84750  0.28200  0.32210  1.0000 0.1102204111
H   H46       1.0  0.65250  0.78200  0.17790  1.0000 0.1102204111
H   H47       1.0  0.34750  0.21800  0.17790  1.0000 0.1102204111
H   H48       1.0  0.28200  0.84750  0.67790  1.0000 0.1102204111
H   H49       1.0  0.84750  0.28200  0.67790  1.0000 0.1102204111
H   H50       1.0  0.78200  0.65250  0.17790  1.0000 0.1102204111
H   H51       1.0  0.21800  0.34750  0.17790  1.0000 0.1102204111
H   H52       1.0  0.28200  0.84750  0.32210  1.0000 0.1102204111
H   H53       1.0  0.15250  0.71800  0.67790  1.0000 0.1102204111
H   H54       1.0  0.34750  0.21800  0.82210  1.0000 0.1102204111
H   H55       1.0  0.65250  0.78200  0.82210  1.0000 0.1102204111
H   H56       1.0  0.71800  0.15250  0.32210  1.0000 0.1102204111
H   H57       1.0  0.08450  0.71250  0.07480  1.0000 0.102478881
H   H58       1.0  0.21250  0.41550  0.57480  1.0000 0.102478881
H   H59       1.0  0.78750  0.58450  0.57480  1.0000 0.102478881
H   H60       1.0  0.71250  0.08450  0.92520  1.0000 0.102478881
H   H61       1.0  0.91550  0.28750  0.07480  1.0000 0.102478881
H   H62       1.0  0.58450  0.78750  0.42520  1.0000 0.102478881
H   H63       1.0  0.41550  0.21250  0.42520  1.0000 0.102478881
H   H64       1.0  0.28750  0.91550  0.92520  1.0000 0.102478881
H   H65       1.0  0.91550  0.28750  0.92520  1.0000 0.102478881
H   H66       1.0  0.78750  0.58450  0.42520  1.0000 0.102478881
H   H67       1.0  0.21250  0.41550  0.42520  1.0000 0.102478881
H   H68       1.0  0.28750  0.91550  0.07480  1.0000 0.102478881
H   H69       1.0  0.08450  0.71250  0.92520  1.0000 0.102478881
H   H70       1.0  0.41550  0.21250  0.57480  1.0000 0.102478881
H   H71       1.0  0.58450  0.78750  0.57480  1.0000 0.102478881
H   H72       1.0  0.71250  0.08450  0.07480  1.0000 0.102478881
H   H73       1.0  0.19890  0.55670  0.00000  1.0000 0.0845965115
H   H74       1.0  0.05670  0.30110  0.50000  1.0000 0.0875365114
H   H75       1.0  0.94330  0.69890  0.50000  1.0000 0.0875365114
H   H76       1.0  0.55670  0.19890  0.00000  1.0000 0.0845965115
H   H77       1.0  0.80110  0.44330  0.00000  1.0000 0.0845965115
H   H78       1.0  0.69890  0.94330  0.50000  1.0000 0.0875365114
H   H79       1.0  0.30110  0.05670  0.50000  1.0000 0.0875365114
H   H80       1.0  0.44330  0.80110  0.00000  1.0000 0.0845965115
H   H81       1.0  0.03960  0.75080  0.37730  1.0000 0.1102204111
H   H82       1.0  0.25080  0.46040  0.87730  1.0000 0.1102204111
H   H83       1.0  0.74920  0.53960  0.87730  1.0000 0.1102204111
H   H84       1.0  0.75080  0.03960  0.62270  1.0000 0.1102204111
H   H85       1.0  0.96040  0.24920  0.37730  1.0000 0.1102204111
H   H86       1.0  0.53960  0.74920  0.12270  1.0000 0.1102204111
H   H87       1.0  0.46040  0.25080  0.12270  1.0000 0.1102204111
H   H88       1.0  0.24920  0.96040  0.62270  1.0000 0.1102204111
H   H89       1.0  0.96040  0.24920  0.62270  1.0000 0.1102204111
H   H90       1.0  0.74920  0.53960  0.12270  1.0000 0.1102204111
H   H91       1.0  0.25080  0.46040  0.12270  1.0000 0.1102204111
H   H92       1.0  0.24920  0.96040  0.37730  1.0000 0.1102204111
H   H93       1.0  0.03960  0.75080  0.62270  1.0000 0.1102204111
H   H94       1.0  0.46040  0.25080  0.87730  1.0000 0.1102204111
H   H95       1.0  0.53960  0.74920  0.87730  1.0000 0.1102204111
H   H96       1.0  0.75080  0.03960  0.37730  1.0000 0.1102204111
C   C1        1.0  0.28930  0.71070  0.17270  1.0000 0.1302947854
C   C2        1.0  0.21070  0.21070  0.67270  1.0000 0.1302947854
C   C3        1.0  0.78930  0.78930  0.67270  1.0000 0.1302947854
C   C4        1.0  0.71070  0.28930  0.82730  1.0000 0.1302947854
C   C5        1.0  0.71070  0.28930  0.17270  1.0000 0.1302947854
C   C6        1.0  0.78930  0.78930  0.32730  1.0000 0.1302947854
C   C7        1.0  0.21070  0.21070  0.32730  1.0000 0.1302947854
C   C8        1.0  0.28930  0.71070  0.82730  1.0000 0.1302947854
C   C9        1.0  0.30920  0.63980  0.26560  1.0000 -0.0704366732
C   C10       1.0  0.13980  0.19080  0.76560  1.0000 -0.0704366732
C   C11       1.0  0.86020  0.80920  0.76560  1.0000 -0.0704366732
C   C12       1.0  0.63980  0.30920  0.73440  1.0000 -0.0704366732
C   C13       1.0  0.69080  0.36020  0.26560  1.0000 -0.0704366732
C   C14       1.0  0.80920  0.86020  0.23440  1.0000 -0.0704366732
C   C15       1.0  0.19080  0.13980  0.23440  1.0000 -0.0704366732
C   C16       1.0  0.36020  0.69080  0.73440  1.0000 -0.0704366732
C   C17       1.0  0.69080  0.36020  0.73440  1.0000 -0.0704366732
C   C18       1.0  0.86020  0.80920  0.23440  1.0000 -0.0704366732
C   C19       1.0  0.13980  0.19080  0.23440  1.0000 -0.0704366732
C   C20       1.0  0.36020  0.69080  0.26560  1.0000 -0.0704366732
C   C21       1.0  0.30920  0.63980  0.73440  1.0000 -0.0704366732
C   C22       1.0  0.19080  0.13980  0.76560  1.0000 -0.0704366732
C   C23       1.0  0.80920  0.86020  0.76560  1.0000 -0.0704366732
C   C24       1.0  0.63980  0.30920  0.26560  1.0000 -0.0704366732
C   C25       1.0  0.03260  0.63820  0.25050  1.0000 0.1302947854
C   C26       1.0  0.13820  0.46740  0.75050  1.0000 0.1302947854
C   C27       1.0  0.86180  0.53260  0.75050  1.0000 0.1302947854
C   C28       1.0  0.63820  0.03260  0.74950  1.0000 0.1302947854
C   C29       1.0  0.96740  0.36180  0.25050  1.0000 0.1302947854
C   C30       1.0  0.53260  0.86180  0.24950  1.0000 0.1302947854
C   C31       1.0  0.46740  0.13820  0.24950  1.0000 0.1302947854
C   C32       1.0  0.36180  0.96740  0.74950  1.0000 0.1302947854
C   C33       1.0  0.96740  0.36180  0.74950  1.0000 0.1302947854
C   C34       1.0  0.86180  0.53260  0.24950  1.0000 0.1302947854
C   C35       1.0  0.13820  0.46740  0.24950  1.0000 0.1302947854
C   C36       1.0  0.36180  0.96740  0.25050  1.0000 0.1302947854
C   C37       1.0  0.03260  0.63820  0.74950  1.0000 0.1302947854
C   C38       1.0  0.46740  0.13820  0.75050  1.0000 0.1302947854
C   C39       1.0  0.53260  0.86180  0.75050  1.0000 0.1302947854
C   C40       1.0  0.63820  0.03260  0.25050  1.0000 0.1302947854
C   C41       1.0  0.10930  0.69920  0.30660  1.0000 -0.0704366732
C   C42       1.0  0.19920  0.39070  0.80660  1.0000 -0.0704366732
C   C43       1.0  0.80080  0.60930  0.80660  1.0000 -0.0704366732
C   C44       1.0  0.69920  0.10930  0.69340  1.0000 -0.0704366732
C   C45       1.0  0.89070  0.30080  0.30660  1.0000 -0.0704366732
C   C46       1.0  0.60930  0.80080  0.19340  1.0000 -0.0704366732
C   C47       1.0  0.39070  0.19920  0.19340  1.0000 -0.0704366732
C   C48       1.0  0.30080  0.89070  0.69340  1.0000 -0.0704366732
C   C49       1.0  0.89070  0.30080  0.69340  1.0000 -0.0704366732
C   C50       1.0  0.80080  0.60930  0.19340  1.0000 -0.0704366732
C   C51       1.0  0.19920  0.39070  0.19340  1.0000 -0.0704366732
C   C52       1.0  0.30080  0.89070  0.30660  1.0000 -0.0704366732
C   C53       1.0  0.10930  0.69920  0.69340  1.0000 -0.0704366732
C   C54       1.0  0.39070  0.19920  0.80660  1.0000 -0.0704366732
C   C55       1.0  0.60930  0.80080  0.80660  1.0000 -0.0704366732
C   C56       1.0  0.69920  0.10930  0.30660  1.0000 -0.0704366732
C   C57       1.0  0.10880  0.68120  0.04220  1.0000 -0.0533103886
C   C58       1.0  0.18120  0.39120  0.54220  1.0000 -0.0533103886
C   C59       1.0  0.81880  0.60880  0.54220  1.0000 -0.0533103886
C   C60       1.0  0.68120  0.10880  0.95780  1.0000 -0.0533103886
C   C61       1.0  0.89120  0.31880  0.04220  1.0000 -0.0533103886
C   C62       1.0  0.60880  0.81880  0.45780  1.0000 -0.0533103886
C   C63       1.0  0.39120  0.18120  0.45780  1.0000 -0.0533103886
C   C64       1.0  0.31880  0.89120  0.95780  1.0000 -0.0533103886
C   C65       1.0  0.89120  0.31880  0.95780  1.0000 -0.0533103886
C   C66       1.0  0.81880  0.60880  0.45780  1.0000 -0.0533103886
C   C67       1.0  0.18120  0.39120  0.45780  1.0000 -0.0533103886
C   C68       1.0  0.31880  0.89120  0.04220  1.0000 -0.0533103886
C   C69       1.0  0.10880  0.68120  0.95780  1.0000 -0.0533103886
C   C70       1.0  0.39120  0.18120  0.54220  1.0000 -0.0533103886
C   C71       1.0  0.60880  0.81880  0.54220  1.0000 -0.0533103886
C   C72       1.0  0.68120  0.10880  0.04220  1.0000 -0.0533103886
C   C73       1.0  0.17110  0.59710  0.00000  1.0000 0.1196973981
C   C74       1.0  0.09710  0.32890  0.50000  1.0000 0.1196973981
C   C75       1.0  0.90290  0.67110  0.50000  1.0000 0.1196973981
C   C76       1.0  0.59710  0.17110  0.00000  1.0000 0.1196973981
C   C77       1.0  0.82890  0.40290  0.00000  1.0000 0.1196973981
C   C78       1.0  0.67110  0.90290  0.50000  1.0000 0.1196973981
C   C79       1.0  0.32890  0.09710  0.50000  1.0000 0.1196973981
C   C80       1.0  0.40290  0.82890  0.00000  1.0000 0.1196973981
C   C81       1.0  0.04730  0.71730  0.33770  1.0000 -0.0704366732
C   C82       1.0  0.21730  0.45270  0.83770  1.0000 -0.0704366732
C   C83       1.0  0.78270  0.54730  0.83770  1.0000 -0.0704366732
C   C84       1.0  0.71730  0.04730  0.66230  1.0000 -0.0704366732
C   C85       1.0  0.95270  0.28270  0.33770  1.0000 -0.0704366732
C   C86       1.0  0.54730  0.78270  0.16230  1.0000 -0.0704366732
C   C87       1.0  0.45270  0.21730  0.16230  1.0000 -0.0704366732
C   C88       1.0  0.28270  0.95270  0.66230  1.0000 -0.0704366732
C   C89       1.0  0.95270  0.28270  0.66230  1.0000 -0.0704366732
C   C90       1.0  0.78270  0.54730  0.16230  1.0000 -0.0704366732
C   C91       1.0  0.21730  0.45270  0.16230  1.0000 -0.0704366732
C   C92       1.0  0.28270  0.95270  0.33770  1.0000 -0.0704366732
C   C93       1.0  0.04730  0.71730  0.66230  1.0000 -0.0704366732
C   C94       1.0  0.45270  0.21730  0.83770  1.0000 -0.0704366732
C   C95       1.0  0.54730  0.78270  0.83770  1.0000 -0.0704366732
C   C96       1.0  0.71730  0.04730  0.33770  1.0000 -0.0704366732
N   N1        1.0  0.26460  0.65220  0.20440  1.0000 -0.3001268035
N   N2        1.0  0.15220  0.23540  0.70440  1.0000 -0.3001268035
N   N3        1.0  0.84780  0.76460  0.70440  1.0000 -0.3001268035
N   N4        1.0  0.65220  0.26460  0.79560  1.0000 -0.3001268035
N   N5        1.0  0.73540  0.34780  0.20440  1.0000 -0.3001268035
N   N6        1.0  0.76460  0.84780  0.29560  1.0000 -0.3001268035
N   N7        1.0  0.23540  0.15220  0.29560  1.0000 -0.3001268035
N   N8        1.0  0.34780  0.73540  0.79560  1.0000 -0.3001268035
N   N9        1.0  0.73540  0.34780  0.79560  1.0000 -0.3001268035
N   N10       1.0  0.84780  0.76460  0.29560  1.0000 -0.3001268035
N   N11       1.0  0.15220  0.23540  0.29560  1.0000 -0.3001268035
N   N12       1.0  0.34780  0.73540  0.20440  1.0000 -0.3001268035
N   N13       1.0  0.26460  0.65220  0.79560  1.0000 -0.3001268035
N   N14       1.0  0.23540  0.15220  0.70440  1.0000 -0.3001268035
N   N15       1.0  0.76460  0.84780  0.70440  1.0000 -0.3001268035
N   N16       1.0  0.65220  0.26460  0.20440  1.0000 -0.3001268035
N   N17       1.0  0.10060  0.64920  0.24880  1.0000 -0.3001268035
N   N18       1.0  0.14920  0.39940  0.74880  1.0000 -0.3001268035
N   N19       1.0  0.85080  0.60060  0.74880  1.0000 -0.3001268035
N   N20       1.0  0.64920  0.10060  0.75120  1.0000 -0.3001268035
N   N21       1.0  0.89940  0.35080  0.24880  1.0000 -0.3001268035
N   N22       1.0  0.60060  0.85080  0.25120  1.0000 -0.3001268035
N   N23       1.0  0.39940  0.14920  0.25120  1.0000 -0.3001268035
N   N24       1.0  0.35080  0.89940  0.75120  1.0000 -0.3001268035
N   N25       1.0  0.89940  0.35080  0.75120  1.0000 -0.3001268035
N   N26       1.0  0.85080  0.60060  0.25120  1.0000 -0.3001268035
N   N27       1.0  0.14920  0.39940  0.25120  1.0000 -0.3001268035
N   N28       1.0  0.35080  0.89940  0.24880  1.0000 -0.3001268035
N   N29       1.0  0.10060  0.64920  0.75120  1.0000 -0.3001268035
N   N30       1.0  0.39940  0.14920  0.74880  1.0000 -0.3001268035
N   N31       1.0  0.60060  0.85080  0.74880  1.0000 -0.3001268035
N   N32       1.0  0.64920  0.10060  0.24880  1.0000 -0.3001268035
N   N33       1.0  0.14990  0.62800  0.06710  1.0000 -0.3001268035
N   N34       1.0  0.12800  0.35010  0.56710  1.0000 -0.3001268035
N   N35       1.0  0.87200  0.64990  0.56710  1.0000 -0.3001268035
N   N36       1.0  0.62800  0.14990  0.93290  1.0000 -0.3001268035
N   N37       1.0  0.85010  0.37200  0.06710  1.0000 -0.3001268035
N   N38       1.0  0.64990  0.87200  0.43290  1.0000 -0.3001268035
N   N39       1.0  0.35010  0.12800  0.43290  1.0000 -0.3001268035
N   N40       1.0  0.37200  0.85010  0.93290  1.0000 -0.3001268035
N   N41       1.0  0.85010  0.37200  0.93290  1.0000 -0.3001268035
N   N42       1.0  0.87200  0.64990  0.43290  1.0000 -0.3001268035
N   N43       1.0  0.12800  0.35010  0.43290  1.0000 -0.3001268035
N   N44       1.0  0.37200  0.85010  0.06710  1.0000 -0.3001268035
N   N45       1.0  0.14990  0.62800  0.93290  1.0000 -0.3001268035
N   N46       1.0  0.35010  0.12800  0.56710  1.0000 -0.3001268035
N   N47       1.0  0.64990  0.87200  0.56710  1.0000 -0.3001268035
N   N48       1.0  0.62800  0.14990  0.06710  1.0000 -0.3001268035
N   N49       1.0  0.99790  0.67790  0.30080  1.0000 -0.2881185593
N   N50       1.0  0.17790  0.50210  0.80080  1.0000 -0.2881185593
N   N51       1.0  0.82210  0.49790  0.80080  1.0000 -0.2881185593
N   N52       1.0  0.67790  0.99790  0.69920  1.0000 -0.2881185593
N   N53       1.0  0.00210  0.32210  0.30080  1.0000 -0.2881185593
N   N54       1.0  0.49790  0.82210  0.19920  1.0000 -0.2881185593
N   N55       1.0  0.50210  0.17790  0.19920  1.0000 -0.2881185593
N   N56       1.0  0.32210  0.00210  0.69920  1.0000 -0.2881185593
N   N57       1.0  0.00210  0.32210  0.69920  1.0000 -0.2881185593
N   N58       1.0  0.82210  0.49790  0.19920  1.0000 -0.2881185593
N   N59       1.0  0.17790  0.50210  0.19920  1.0000 -0.2881185593
N   N60       1.0  0.32210  0.00210  0.30080  1.0000 -0.2881185593
N   N61       1.0  0.99790  0.67790  0.69920  1.0000 -0.2881185593
N   N62       1.0  0.50210  0.17790  0.80080  1.0000 -0.2881185593
N   N63       1.0  0.49790  0.82210  0.80080  1.0000 -0.2881185593
N   N64       1.0  0.67790  0.99790  0.30080  1.0000 -0.2881185593
