# DDEC6 charges by PACMAN v1.1 (https://github.com/mtap-research/PACMAN-charge/)
data_KAFLOW_ASR_pacman
_symmetry_space_group_name_H-M   'P 1'
_cell_length_a   22.18710000
_cell_length_b   22.18710000
_cell_length_c   22.18710000
_cell_angle_alpha   128.46300000
_cell_angle_beta   128.46300000
_cell_angle_gamma   75.87570000
_symmetry_Int_Tables_number   1
_chemical_formula_structural   Co2H14C37O8
_chemical_formula_sum   'Co8 H56 C148 O32'
_cell_volume   6511.97503143
_cell_formula_units_Z   4
loop_
 _symmetry_equiv_pos_site_id
 _symmetry_equiv_pos_as_xyz
  1  'x, y, z'
loop_
 _atom_site_type_symbol
 _atom_site_label
 _atom_site_symmetry_multiplicity
 _atom_site_fract_x
 _atom_site_fract_y
 _atom_site_fract_z
 _atom_site_occupancy
 _atom_site_charge
Co  Co1  1  0.50348000  0.50348000  0.56952000  1.0 0.9796267958
Co  Co2  1  0.93396000  0.93396000  0.43048000  1.0 0.9796267958
Co  Co3  1  0.50348000  0.93396000  0.00000000  1.0 0.9796267958
Co  Co4  1  0.93396000  0.50348000  0.00000000  1.0 0.9796267958
Co  Co5  1  0.06604000  0.49652000  0.00000000  1.0 0.9796267958
Co  Co6  1  0.49652000  0.06604000  0.00000000  1.0 0.9796267958
Co  Co7  1  0.06604000  0.06604000  0.56952000  1.0 0.9796267958
Co  Co8  1  0.49652000  0.49652000  0.43048000  1.0 0.9796267958
H  H1  1  0.14877000  0.52774000  0.56137000  1.0 0.0800695654
H  H2  1  0.20722000  0.52413000  0.50107000  1.0 0.1058595391
H  H3  1  0.25583000  0.46829000  0.42050000  1.0 0.1316603558
H  H4  1  0.96637000  0.58740000  0.43863000  1.0 0.0800695654
H  H5  1  0.02306000  0.70615000  0.49893000  1.0 0.1058595391
H  H6  1  0.04779000  0.83533000  0.57950000  1.0 0.1316603558
H  H7  1  0.52774000  0.96637000  0.37897000  1.0 0.0800695654
H  H8  1  0.52413000  0.02306000  0.31691000  1.0 0.1058595391
H  H9  1  0.46829000  0.04779000  0.21246000  1.0 0.1316603558
H  H10  1  0.58740000  0.14877000  0.62103000  1.0 0.0800695654
H  H11  1  0.70615000  0.20722000  0.68309000  1.0 0.1058595391
H  H12  1  0.83533000  0.25583000  0.78754000  1.0 0.1316603558
H  H13  1  0.03363000  0.47226000  0.62103000  1.0 0.0800695654
H  H14  1  0.97694000  0.47587000  0.68309000  1.0 0.1058595391
H  H15  1  0.95221000  0.53171000  0.78754000  1.0 0.1316603558
H  H16  1  0.85123000  0.41260000  0.37897000  1.0 0.0800695654
H  H17  1  0.79278000  0.29385000  0.31691000  1.0 0.1058595391
H  H18  1  0.74417000  0.16467000  0.21246000  1.0 0.1316603558
H  H19  1  0.41260000  0.03363000  0.56137000  1.0 0.0800695654
H  H20  1  0.29385000  0.97694000  0.50107000  1.0 0.1058595391
H  H21  1  0.16467000  0.95221000  0.42050000  1.0 0.1316603558
H  H22  1  0.47226000  0.85123000  0.43863000  1.0 0.0800695654
H  H23  1  0.47587000  0.79278000  0.49893000  1.0 0.1058595391
H  H24  1  0.53171000  0.74417000  0.57950000  1.0 0.1316603558
H  H25  1  0.85123000  0.47226000  0.43863000  1.0 0.0800695654
H  H26  1  0.79278000  0.47587000  0.49893000  1.0 0.1058595391
H  H27  1  0.74417000  0.53171000  0.57950000  1.0 0.1316603558
H  H28  1  0.03363000  0.41260000  0.56137000  1.0 0.0800695654
H  H29  1  0.97694000  0.29385000  0.50107000  1.0 0.1058595391
H  H30  1  0.95221000  0.16467000  0.42050000  1.0 0.1316603558
H  H31  1  0.47226000  0.03363000  0.62103000  1.0 0.0800695654
H  H32  1  0.47587000  0.97694000  0.68309000  1.0 0.1058595391
H  H33  1  0.53171000  0.95221000  0.78754000  1.0 0.1316603558
H  H34  1  0.41260000  0.85123000  0.37897000  1.0 0.0800695654
H  H35  1  0.29385000  0.79278000  0.31691000  1.0 0.1058595391
H  H36  1  0.16467000  0.74417000  0.21246000  1.0 0.1316603558
H  H37  1  0.96637000  0.52774000  0.37897000  1.0 0.0800695654
H  H38  1  0.02306000  0.52413000  0.31691000  1.0 0.1058595391
H  H39  1  0.04779000  0.46829000  0.21246000  1.0 0.1316603558
H  H40  1  0.14877000  0.58740000  0.62103000  1.0 0.0800695654
H  H41  1  0.20722000  0.70615000  0.68309000  1.0 0.1058595391
H  H42  1  0.25583000  0.83533000  0.78754000  1.0 0.1316603558
H  H43  1  0.58740000  0.96637000  0.43863000  1.0 0.0800695654
H  H44  1  0.70615000  0.02306000  0.49893000  1.0 0.1058595391
H  H45  1  0.83533000  0.04779000  0.57950000  1.0 0.1316603558
H  H46  1  0.52774000  0.14877000  0.56137000  1.0 0.0800695654
H  H47  1  0.52413000  0.20722000  0.50107000  1.0 0.1058595391
H  H48  1  0.46829000  0.25583000  0.42050000  1.0 0.1316603558
H  H49  1  0.24096000  0.47982000  0.23886000  1.0 0.1405591057
H  H50  1  0.24096000  0.00210000  0.76114000  1.0 0.1405591057
H  H51  1  0.47982000  0.24096000  0.23886000  1.0 0.1405591057
H  H52  1  0.00210000  0.24096000  0.76114000  1.0 0.1405591057
H  H53  1  0.75904000  0.52018000  0.76114000  1.0 0.1405591057
H  H54  1  0.75904000  0.99790000  0.23886000  1.0 0.1405591057
H  H55  1  0.99790000  0.75904000  0.23886000  1.0 0.1405591057
H  H56  1  0.52018000  0.75904000  0.76114000  1.0 0.1405591057
C  C1  1  0.11970000  0.50160000  0.49490000  1.0 -0.1299627162
C  C2  1  0.08740000  0.41570000  0.41630000  1.0 0.0071836012
C  C3  1  0.15420000  0.49940000  0.45880000  1.0 -0.1299627162
C  C4  1  0.12410000  0.41690000  0.38320000  1.0 -0.0142297371
C  C5  1  0.22543000  0.46843000  0.36720000  1.0 -0.1473779841
C  C6  1  0.26102000  0.47392000  0.33710000  1.0 0.0035573768
C  C7  1  0.35075000  0.48105000  0.39370000  1.0 0.5976100402
C  C8  1  0.00670000  0.62480000  0.50510000  1.0 -0.1299627162
C  C9  1  0.99940000  0.67110000  0.58370000  1.0 0.0071836012
C  C10  1  0.04060000  0.69540000  0.54120000  1.0 -0.1299627162
C  C11  1  0.03370000  0.74090000  0.61680000  1.0 -0.0142297371
C  C12  1  0.10123000  0.85823000  0.63280000  1.0 -0.1473779841
C  C13  1  0.13682000  0.92392000  0.66290000  1.0 0.0035573768
C  C14  1  0.08735000  0.95705000  0.60630000  1.0 0.5976100402
C  C15  1  0.50160000  0.00670000  0.38190000  1.0 -0.1299627162
C  C16  1  0.41570000  0.99940000  0.32830000  1.0 0.0071836012
C  C17  1  0.49940000  0.04060000  0.34520000  1.0 -0.1299627162
C  C18  1  0.41690000  0.03370000  0.29280000  1.0 -0.0142297371
C  C19  1  0.46843000  0.10123000  0.24300000  1.0 -0.1473779841
C  C20  1  0.47392000  0.13682000  0.21290000  1.0 0.0035573768
C  C21  1  0.48105000  0.08735000  0.13030000  1.0 0.5976100402
C  C22  1  0.62480000  0.11970000  0.61810000  1.0 -0.1299627162
C  C23  1  0.67110000  0.08740000  0.67170000  1.0 0.0071836012
C  C24  1  0.69540000  0.15420000  0.65480000  1.0 -0.1299627162
C  C25  1  0.74090000  0.12410000  0.70720000  1.0 -0.0142297371
C  C26  1  0.85823000  0.22543000  0.75700000  1.0 -0.1473779841
C  C27  1  0.92392000  0.26102000  0.78710000  1.0 0.0035573768
C  C28  1  0.95705000  0.35075000  0.86970000  1.0 0.5976100402
C  C29  1  0.99330000  0.49840000  0.61810000  1.0 -0.1299627162
C  C30  1  0.00060000  0.58430000  0.67170000  1.0 0.0071836012
C  C31  1  0.95940000  0.50060000  0.65480000  1.0 -0.1299627162
C  C32  1  0.96630000  0.58310000  0.70720000  1.0 -0.0142297371
C  C33  1  0.89877000  0.53157000  0.75700000  1.0 -0.1473779841
C  C34  1  0.86318000  0.52608000  0.78710000  1.0 0.0035573768
C  C35  1  0.91265000  0.51895000  0.86970000  1.0 0.5976100402
C  C36  1  0.88030000  0.37520000  0.38190000  1.0 -0.1299627162
C  C37  1  0.91260000  0.32890000  0.32830000  1.0 0.0071836012
C  C38  1  0.84580000  0.30460000  0.34520000  1.0 -0.1299627162
C  C39  1  0.87590000  0.25910000  0.29280000  1.0 -0.0142297371
C  C40  1  0.77457000  0.14177000  0.24300000  1.0 -0.1473779841
C  C41  1  0.73898000  0.07608000  0.21290000  1.0 0.0035573768
C  C42  1  0.64925000  0.04295000  0.13030000  1.0 0.5976100402
C  C43  1  0.37520000  0.99330000  0.49490000  1.0 -0.1299627162
C  C44  1  0.32890000  0.00060000  0.41630000  1.0 0.0071836012
C  C45  1  0.30460000  0.95940000  0.45880000  1.0 -0.1299627162
C  C46  1  0.25910000  0.96630000  0.38320000  1.0 -0.0142297371
C  C47  1  0.14177000  0.89877000  0.36720000  1.0 -0.1473779841
C  C48  1  0.07608000  0.86318000  0.33710000  1.0 0.0035573768
C  C49  1  0.04295000  0.91265000  0.39370000  1.0 0.5976100402
C  C50  1  0.49840000  0.88030000  0.50510000  1.0 -0.1299627162
C  C51  1  0.58430000  0.91260000  0.58370000  1.0 0.0071836012
C  C52  1  0.50060000  0.84580000  0.54120000  1.0 -0.1299627162
C  C53  1  0.58310000  0.87590000  0.61680000  1.0 -0.0142297371
C  C54  1  0.53157000  0.77457000  0.63280000  1.0 -0.1473779841
C  C55  1  0.52608000  0.73898000  0.66290000  1.0 0.0035573768
C  C56  1  0.51895000  0.64925000  0.60630000  1.0 0.5976100402
C  C57  1  0.88030000  0.49840000  0.50510000  1.0 -0.1299627162
C  C58  1  0.91260000  0.58430000  0.58370000  1.0 0.0071836012
C  C59  1  0.84580000  0.50060000  0.54120000  1.0 -0.1299627162
C  C60  1  0.87590000  0.58310000  0.61680000  1.0 -0.0142297371
C  C61  1  0.77457000  0.53157000  0.63280000  1.0 -0.1473779841
C  C62  1  0.73898000  0.52608000  0.66290000  1.0 0.0035573768
C  C63  1  0.64925000  0.51895000  0.60630000  1.0 0.5976100402
C  C64  1  0.99330000  0.37520000  0.49490000  1.0 -0.1299627162
C  C65  1  0.00060000  0.32890000  0.41630000  1.0 0.0071836012
C  C66  1  0.95940000  0.30460000  0.45880000  1.0 -0.1299627162
C  C67  1  0.96630000  0.25910000  0.38320000  1.0 -0.0142297371
C  C68  1  0.89877000  0.14177000  0.36720000  1.0 -0.1473779841
C  C69  1  0.86318000  0.07608000  0.33710000  1.0 0.0035573768
C  C70  1  0.91265000  0.04295000  0.39370000  1.0 0.5976100402
C  C71  1  0.49840000  0.99330000  0.61810000  1.0 -0.1299627162
C  C72  1  0.58430000  0.00060000  0.67170000  1.0 0.0071836012
C  C73  1  0.50060000  0.95940000  0.65480000  1.0 -0.1299627162
C  C74  1  0.58310000  0.96630000  0.70720000  1.0 -0.0142297371
C  C75  1  0.53157000  0.89877000  0.75700000  1.0 -0.1473779841
C  C76  1  0.52608000  0.86318000  0.78710000  1.0 0.0035573768
C  C77  1  0.51895000  0.91265000  0.86970000  1.0 0.5976100402
C  C78  1  0.37520000  0.88030000  0.38190000  1.0 -0.1299627162
C  C79  1  0.32890000  0.91260000  0.32830000  1.0 0.0071836012
C  C80  1  0.30460000  0.84580000  0.34520000  1.0 -0.1299627162
C  C81  1  0.25910000  0.87590000  0.29280000  1.0 -0.0142297371
C  C82  1  0.14177000  0.77457000  0.24300000  1.0 -0.1473779841
C  C83  1  0.07608000  0.73898000  0.21290000  1.0 0.0035573768
C  C84  1  0.04295000  0.64925000  0.13030000  1.0 0.5976100402
C  C85  1  0.00670000  0.50160000  0.38190000  1.0 -0.1299627162
C  C86  1  0.99940000  0.41570000  0.32830000  1.0 0.0071836012
C  C87  1  0.04060000  0.49940000  0.34520000  1.0 -0.1299627162
C  C88  1  0.03370000  0.41690000  0.29280000  1.0 -0.0142297371
C  C89  1  0.10123000  0.46843000  0.24300000  1.0 -0.1473779841
C  C90  1  0.13682000  0.47392000  0.21290000  1.0 0.0035573768
C  C91  1  0.08735000  0.48105000  0.13030000  1.0 0.5976100402
C  C92  1  0.11970000  0.62480000  0.61810000  1.0 -0.1299627162
C  C93  1  0.08740000  0.67110000  0.67170000  1.0 0.0071836012
C  C94  1  0.15420000  0.69540000  0.65480000  1.0 -0.1299627162
C  C95  1  0.12410000  0.74090000  0.70720000  1.0 -0.0142297371
C  C96  1  0.22543000  0.85823000  0.75700000  1.0 -0.1473779841
C  C97  1  0.26102000  0.92392000  0.78710000  1.0 0.0035573768
C  C98  1  0.35075000  0.95705000  0.86970000  1.0 0.5976100402
C  C99  1  0.62480000  0.00670000  0.50510000  1.0 -0.1299627162
C  C100  1  0.67110000  0.99940000  0.58370000  1.0 0.0071836012
C  C101  1  0.69540000  0.04060000  0.54120000  1.0 -0.1299627162
C  C102  1  0.74090000  0.03370000  0.61680000  1.0 -0.0142297371
C  C103  1  0.85823000  0.10123000  0.63280000  1.0 -0.1473779841
C  C104  1  0.92392000  0.13682000  0.66290000  1.0 0.0035573768
C  C105  1  0.95705000  0.08735000  0.60630000  1.0 0.5976100402
C  C106  1  0.50160000  0.11970000  0.49490000  1.0 -0.1299627162
C  C107  1  0.41570000  0.08740000  0.41630000  1.0 0.0071836012
C  C108  1  0.49940000  0.15420000  0.45880000  1.0 -0.1299627162
C  C109  1  0.41690000  0.12410000  0.38320000  1.0 -0.0142297371
C  C110  1  0.46843000  0.22543000  0.36720000  1.0 -0.1473779841
C  C111  1  0.47392000  0.26102000  0.33710000  1.0 0.0035573768
C  C112  1  0.48105000  0.35075000  0.39370000  1.0 0.5976100402
C  C113  1  0.00000000  0.46490000  0.46490000  1.0 0.0035573768
C  C114  1  0.00000000  0.53510000  0.53510000  1.0 0.0035573768
C  C115  1  0.46490000  0.00000000  0.46490000  1.0 0.0071836012
C  C116  1  0.53510000  0.00000000  0.53510000  1.0 0.0071836012
C  C117  1  0.03637000  0.46157000  0.42520000  1.0 0.0277559241
C  C118  1  0.10546000  0.45716000  0.35170000  1.0 0.0511624092
C  C119  1  0.14422000  0.46302000  0.31880000  1.0 0.0800695654
C  C120  1  0.21690000  0.47640000  0.25950000  1.0 -0.0950291841
C  C121  1  0.03637000  0.61117000  0.57480000  1.0 0.0277559241
C  C122  1  0.10546000  0.75376000  0.64830000  1.0 0.0511624092
C  C123  1  0.14422000  0.82542000  0.68120000  1.0 0.0800695654
C  C124  1  0.21690000  0.95740000  0.74050000  1.0 -0.0950291841
C  C125  1  0.46157000  0.03637000  0.42520000  1.0 0.0277559241
C  C126  1  0.45716000  0.10546000  0.35170000  1.0 0.0511624092
C  C127  1  0.46302000  0.14422000  0.31880000  1.0 0.0800695654
C  C128  1  0.47640000  0.21690000  0.25950000  1.0 -0.0950291841
C  C129  1  0.61117000  0.03637000  0.57480000  1.0 0.0277559241
C  C130  1  0.75376000  0.10546000  0.64830000  1.0 0.0511624092
C  C131  1  0.82542000  0.14422000  0.68120000  1.0 0.0800695654
C  C132  1  0.95740000  0.21690000  0.74050000  1.0 -0.0950291841
C  C133  1  0.96363000  0.53843000  0.57480000  1.0 0.0277559241
C  C134  1  0.89454000  0.54284000  0.64830000  1.0 0.0511624092
C  C135  1  0.85578000  0.53698000  0.68120000  1.0 0.0800695654
C  C136  1  0.78310000  0.52360000  0.74050000  1.0 -0.0950291841
C  C137  1  0.96363000  0.38883000  0.42520000  1.0 0.0277559241
C  C138  1  0.89454000  0.24624000  0.35170000  1.0 0.0511624092
C  C139  1  0.85578000  0.17458000  0.31880000  1.0 0.0800695654
C  C140  1  0.78310000  0.04260000  0.25950000  1.0 -0.0950291841
C  C141  1  0.38883000  0.96363000  0.42520000  1.0 0.0277559241
C  C142  1  0.24624000  0.89454000  0.35170000  1.0 0.0511624092
C  C143  1  0.17458000  0.85578000  0.31880000  1.0 0.0800695654
C  C144  1  0.04260000  0.78310000  0.25950000  1.0 -0.0950291841
C  C145  1  0.53843000  0.96363000  0.57480000  1.0 0.0277559241
C  C146  1  0.54284000  0.89454000  0.64830000  1.0 0.0511624092
C  C147  1  0.53698000  0.85578000  0.68120000  1.0 0.0800695654
C  C148  1  0.52360000  0.78310000  0.74050000  1.0 -0.0950291841
O  O1  1  0.38584000  0.48714000  0.46810000  1.0 -0.5489111277
O  O2  1  0.37861000  0.48361000  0.35980000  1.0 -0.5489111277
O  O3  1  0.01904000  0.91774000  0.53190000  1.0 -0.5489111277
O  O4  1  0.12381000  0.01881000  0.64020000  1.0 -0.5489111277
O  O5  1  0.48714000  0.01904000  0.10130000  1.0 -0.5489111277
O  O6  1  0.48361000  0.12381000  0.10500000  1.0 -0.5489111277
O  O7  1  0.91774000  0.38584000  0.89870000  1.0 -0.5489111277
O  O8  1  0.01881000  0.37861000  0.89500000  1.0 -0.5489111277
O  O9  1  0.98096000  0.51286000  0.89870000  1.0 -0.5489111277
O  O10  1  0.87619000  0.51639000  0.89500000  1.0 -0.5489111277
O  O11  1  0.61416000  0.08226000  0.10130000  1.0 -0.5489111277
O  O12  1  0.62139000  0.98119000  0.10500000  1.0 -0.5489111277
O  O13  1  0.08226000  0.98096000  0.46810000  1.0 -0.5489111277
O  O14  1  0.98119000  0.87619000  0.35980000  1.0 -0.5489111277
O  O15  1  0.51286000  0.61416000  0.53190000  1.0 -0.5489111277
O  O16  1  0.51639000  0.62139000  0.64020000  1.0 -0.5489111277
O  O17  1  0.61416000  0.51286000  0.53190000  1.0 -0.5489111277
O  O18  1  0.62139000  0.51639000  0.64020000  1.0 -0.5489111277
O  O19  1  0.98096000  0.08226000  0.46810000  1.0 -0.5489111277
O  O20  1  0.87619000  0.98119000  0.35980000  1.0 -0.5489111277
O  O21  1  0.51286000  0.98096000  0.89870000  1.0 -0.5489111277
O  O22  1  0.51639000  0.87619000  0.89500000  1.0 -0.5489111277
O  O23  1  0.08226000  0.61416000  0.10130000  1.0 -0.5489111277
O  O24  1  0.98119000  0.62139000  0.10500000  1.0 -0.5489111277
O  O25  1  0.01904000  0.48714000  0.10130000  1.0 -0.5489111277
O  O26  1  0.12381000  0.48361000  0.10500000  1.0 -0.5489111277
O  O27  1  0.38584000  0.91774000  0.89870000  1.0 -0.5489111277
O  O28  1  0.37861000  0.01881000  0.89500000  1.0 -0.5489111277
O  O29  1  0.91774000  0.01904000  0.53190000  1.0 -0.5489111277
O  O30  1  0.01881000  0.12381000  0.64020000  1.0 -0.5489111277
O  O31  1  0.48714000  0.38584000  0.46810000  1.0 -0.5489111277
O  O32  1  0.48361000  0.37861000  0.35980000  1.0 -0.5489111277
